/*--------------------------------*- C++ -*----------------------------------*\
| =========                 |                                                 |
| \\      /  F ield         | OpenFOAM: The Open Source CFD Toolbox           |
|  \\    /   O peration     | Version:  5                                     |
|   \\  /    A nd           | Web:      www.OpenFOAM.org                      |
|    \\/     M anipulation  |                                                 |
\*---------------------------------------------------------------------------*/
FoamFile
{
    version     2.0;
    format      ascii;
    class       volScalarField;
    location    "0";
    object      epsilon;
}
// * * * * * * * * * * * * * * * * * * * * * * * * * * * * * * * * * * * * * //

dimensions      [0 2 -3 0 0 0 0];

//internalField   uniform 0.165340557637;
internalField   uniform 0.15412531216368116;

boundaryField
{
    MODINLET
    {
        type            turbulentMixingLengthDissipationRateInlet;
        mixingLength    0.00048201537668391266 ;       // 0.5m - half channel height
        value           $internalField;
    }
    MODOUTLET
    {
        type            inletOutlet;
        inletValue      $internalField;
    }
    MODTOCLAD
    {
        type            epsilonWallFunction;
        value           $internalField;
    }
    HEX1c
    {
        type            cyclic;
    }
    HEX1OPc
    {
        type            cyclic;
    }
    HEX2c
    {
        type            cyclic;
    }
    HEX2OPc
    {
        type            cyclic;
    }
    HEX3c
    {
        type            cyclic;
    }
    HEX3OPc
    {
        type            cyclic;
    }
}


// ************************************************************************* //
