/*--------------------------------*- C++ -*----------------------------------*\
| =========                 |                                                 |
| \\      /  F ield         | OpenFOAM: The Open Source CFD Toolbox           |
|  \\    /   O peration     | Version:  5.x                                   |
|   \\  /    A nd           | Web:      www.OpenFOAM.org                      |
|    \\/     M anipulation  |                                                 |
\*---------------------------------------------------------------------------*/
FoamFile
{
    version     2.0;
    format      ascii;
    class       volScalarField;
    location    "0/bottomWater";
    object      T;
}
// * * * * * * * * * * * * * * * * * * * * * * * * * * * * * * * * * * * * * //

dimensions      [ 0 0 0 1 0 0 0 ];

internalField   uniform 523;

boundaryField
{
    MODINLET
    {
        type            fixedValue;
        value           uniform 523.15;
    }
    MODOUTLET
    {
        //type            zeroGradient;
        type            inletOutlet;
        value           uniform 623.15;
        inletValue      uniform 623.15;
    }
    MODTOCLAD
    {
        type            compressible::turbulentTemperatureCoupledBaffleMixed;
//        type            fixedValue;
        value           uniform 600;
        Tnbr            T;
        kappaMethod     fluidThermo;
    }
    HEX1c
    {
        type            cyclic;
    }
    HEX1OPc
    {
        type            cyclic;
    }
    HEX2c
    {
        type            cyclic;
    }
    HEX2OPc
    {
        type            cyclic;
    }
    HEX3c
    {
        type            cyclic;
    }
    HEX3OPc
    {
        type            cyclic;
    }

}


// ************************************************************************* //
