/*--------------------------------*- C++ -*----------------------------------*\
| =========                 |                                                 |
| \\      /  F ield         | OpenFOAM: The Open Source CFD Toolbox           |
|  \\    /   O peration     | Version:  5                                     |
|   \\  /    A nd           | Web:      www.OpenFOAM.org                      |
|    \\/     M anipulation  |                                                 |
\*---------------------------------------------------------------------------*/
FoamFile
{
    version     2.0;
    format      ascii;
    class       dictionary;
    location    "system";
    object      fvSolution;
}
// * * * * * * * * * * * * * * * * * * * * * * * * * * * * * * * * * * * * * //

solvers
{
    "p_rgh.*"
    {
        solver           PCG;
        preconditioner   DIC;
        tolerance        1e-6;
        relTol           0.001;
        maxIter          500;

        smoother         DICGaussSeidel;

    }

    "(U|h|k|epsilon|omega|omegaFinal).*"
    {
        solver          PBiCGStab;
        preconditioner  DILU;
        tolerance       1e-8;
        relTol          0;
    }

    yPsi //for poisson walldist in fvSchemes
    {
        solver          GAMG;
        smoother        GaussSeidel;
        cacheAgglomeration true;
        nCellsInCoarsestLevel 10;
        agglomerator    faceAreaPair;
        mergeLevels     1;
        tolerance       1e-8;
        relTol          0;
    }
}

PIMPLE
{
    nNonOrthogonalCorrectors 0;
    pRefCell        0;
    pRefValue       0;
}

relaxationFactors
{
    rho             0.8;
    p_rgh           0.4;
    U               0.4;
    h               0.4;
    "(k|epsilon|omega)" 0.3;
}


// ************************************************************************* //
