/*--------------------------------*- C++ -*----------------------------------*\
| =========                 |                                                 |
| \\      /  F ield         | OpenFOAM: The Open Source CFD Toolbox           |
|  \\    /   O peration     | Version:  5                                     |
|   \\  /    A nd           | Web:      www.OpenFOAM.org                      |
|    \\/     M anipulation  |                                                 |
\*---------------------------------------------------------------------------*/
FoamFile
{
    version     2.0;
    format      ascii;
    class       dictionary;
    location    "system";
    object      controlDict;
}
// * * * * * * * * * * * * * * * * * * * * * * * * * * * * * * * * * * * * * //

application     chtMultiRegionFoam;

startFrom       startTime;

startTime       0;

stopAt          endTime;

endTime         1000;

deltaT          1e-8;

writeControl    timeStep;

writeInterval   100;//mod

purgeWrite      0;

writeFormat     ascii;

writePrecision  6;

writeCompression uncompressed;

timeFormat      general;

timePrecision   6;

runTimeModifiable true;

OptimisationSwitches
{

mpiBufferSize 200000000;

}

yPlus1
{
    // Mandatory entries (unmodifiable)
    type            yPlus;
    libs            (fieldFunctionObjects);

    // Optional (inherited) entries
    writePrecision  8;
    writeToFile     true;
    useUserTime     true;
//    region          region0;
    enabled         true;
    log             true;
    timeStart       0;
    timeEnd         1000;
    executeControl  timeStep;
    executeInterval 1;
    writeControl    timeStep;
    writeInterval   1;
}

// ************************************************************************* //
