/*--------------------------------*- C++ -*----------------------------------*\
  =========                 |
  \\      /  F ield         | OpenFOAM: The Open Source CFD Toolbox
   \\    /   O peration     | Website:  https://openfoam.org
    \\  /    A nd           | Version:  dev
     \\/     M anipulation  |
\*---------------------------------------------------------------------------*/
FoamFile
{
    version     2.0;
    format      ascii;
    class       volScalarField;
    location    "0/UPZ";
    object      cellToRegion;
}
// * * * * * * * * * * * * * * * * * * * * * * * * * * * * * * * * * * * * * //

dimensions      [0 0 0 0 0 0 0];

internalField   uniform 2;

boundaryField
{
    FUELTOP
    {
        type            zeroGradient;
    }
    FUELBOTTOM
    {
        type            zeroGradient;
    }
    FUELTOCLAD
    {
        type            zeroGradient;
    }
}


// ************************************************************************* //
